units(length='cm', time='s', quantity='mol', act_energy='cal/mol')

# ================================================================================
# !DETAILED LOW T AND HIGH T MECHANISM FOR SPECIES UP TO C12 + Xylenes (XYLENE)
# !
# !5/20/2012
# !Version:Xylene+C12_v1.mech
# !Authors:M. Mehl, M. Sarathy, C. Westbrook, W. Pitz
# !LLNL
# ! 2885 species and 18049 reactions
# ================================================================================

ideal_gas(name='gas',
          elements="C H N O Ar He",
          species="""H               H2              O               O2              OH              
                     H2O             N2              HO2             H2O2            AR              
                     CO              CO2             CH2O            HCO             HO2CHO          
                     O2CHO           HOCHO           OCHO            HOCH2O2H        HOCH2O2         
                     OCH2O2H         HOCH2O          CH3OH           CH2OH           CH3O            
                     CH3O2H          CH3O2           CH4             CH3             CH2             
                     CH2(S)          C               CH              C2H6            C2H5            
                     C2H4            C2H3            C2H2            C2H             CH3CHO          
                     CH3CO           CH2CHO          CH2CO           HCCO            HCCOH           
                     CH3CO3H         CH3CO3          CH3CO2          C2H5OH          C2H5O           
                     PC2H4OH         SC2H4OH         O2C2H4OH        C2H5O2H         C2H5O2          
                     C2H4O2H         C2H4O1-2        C2H3O1-2        CH3COCH3        CH3COCH2        
                     CH3COCH2O2      CH3COCH2O2H     CH3COCH2O       C2H3CHO         C2H3CO          
                     C2H5CHO         C2H5CO          CH3OCH3         CH3OCH2         CH3OCH2O2       
                     CH2OCH2O2H      CH3OCH2O2H      CH3OCH2O        O2CH2OCH2O2H    HO2CH2OCHO      
                     OCH2OCHO        HOCH2OCO        CH3OCHO         CH3OCO          CH2OCHO         
                     HE              C3H8            IC3H7           NC3H7           C3H6            
                     C3H5-A          C3H5-S          C3H5-T          C3H4-P          C3H4-A          
                     C3H3            C3H2            C3H5O           C3H6OOH1-2      C3H6OOH1-3      
                     C3H6OOH2-1      C3H6OOH1-2O2    C3H6OOH1-3O2    C3H6OOH2-1O2    C3H6OOH2-2      
                     NC3H7O2H        IC3H7O2H        NC3H7O2         IC3H7O2         NC3H7O          
                     IC3H7O          C3H6O1-2        C3H6O1-3        C3KET12         C3KET13         
                     C3KET21         C3H51-2,3OOH    C3H52-1,3OOH    C3H6OH          HOC3H6O2        
                     CH3CHCO         AC3H5OOH        C2H3OOH         C4H10           C4H8-1          
                     C4H8-2          PC4H9           SC4H9           C4H71-1         C4H71-2         
                     C4H71-3         C4H71-4         C4H72-2         C4H6            PC4H9O2H        
                     SC4H9O2H        PC4H9O2         SC4H9O2         PC4H9O          SC4H9O          
                     C4H7O           C4H8O1-2        C4H8O1-3        C4H8O1-4        C4H8O2-3        
                     PC4H8OH         SC4H8OH         C4H8OH-1O2      C4H8OH-2O2      C4H8OOH1-1      
                     C4H8OOH1-2      C4H8OOH1-3      C4H8OOH1-4      C4H8OOH2-1      C4H8OOH2-2      
                     C4H8OOH2-3      C4H8OOH2-4      C4H8OOH1-2O2    C4H8OOH1-3O2    C4H8OOH1-4O2    
                     C4H8OOH2-1O2    C4H8OOH2-3O2    C4H8OOH2-4O2    NC4KET12        NC4KET13        
                     NC4KET14        NC4KET21        NC4KET23        NC4KET24        C2H5COCH3       
                     C2H5COCH2       CH2CH2COCH3     CH3CHCOCH3      C2H3COCH3       CH3CHOOCOCH3    
                     CH2CHOOHCOCH3   NC3H7CHO        NC3H7CO         C3H6CHO-1       C3H6CHO-2       
                     C3H6CHO-3       C2H5CHCO        SC3H5CHO        SC3H5CO         CH2CH2CHO       
                     IC4H10          IC4H9           TC4H9           IC4H8           IC4H7           
                     TC4H9O2         IC4H9O2         TC4H8O2H-I      IC4H8O2H-I      IC4H8O2H-T      
                     IC4H8O          CC4H8O          IC4H9O          TC4H9O          IC4H9O2H        
                     TC4H9O2H        IC4H7O          IC4H8OH         IO2C4H8OH       IC3H7CHO        
                     TC3H6CHO        IC3H7CO         IC3H6CHO        TC4H8OOH-IO2    IC4H8OOH-IO2    
                     IC4H8OOH-TO2    IC4KETII        IC4KETIT        IC4H7OH         IC4H6OH         
                     IC3H5CHO        IC3H5CO         TC3H6OCHO       IC3H6CO         IC4H7OOH        
                     TC3H6OHCHO      TC3H6OH         IC3H5OH         TC3H6O2CHO      TC3H6O2HCO      
                     IC3H5O2HCHO     CH2CCH2OH       TC4H8CHO        O2C4H8CHO       O2HC4H8CO       
                     C3H5OH          TIC4H7Q2-I      IIC4H7Q2-T      IIC4H7Q2-I      CH2O2H          
                     NC5H12          C5H11-1         C5H11-2         C5H11-3         C5H10-1         
                     C5H10-2         C5H81-3         C5H91-3         C5H91-4         C5H91-5         
                     C5H92-4         C5H92-5         C5H9O1-3        C5H9O2-4        C5H11O2H-1      
                     C5H11O2H-2      C5H11O2H-3      C5H11O2-1       C5H11O2-2       C5H11O2-3       
                     C5H11O-1        C5H11O-2        C5H11O-3        C5H10OOH1-2     C5H10OOH1-3     
                     C5H10OOH1-4     C5H10OOH1-5     C5H10OOH2-1     C5H10OOH2-3     C5H10OOH2-4     
                     C5H10OOH2-5     C5H10OOH3-2     C5H10OOH3-1     C5H10O1-2       C5H10O1-3       
                     C5H10O1-4       C5H10O1-5       C5H10O2-3       C5H10O2-4       C5H10OOH1-2O2   
                     C5H10OOH1-3O2   C5H10OOH1-4O2   C5H10OOH1-5O2   C5H10OOH2-1O2   C5H10OOH2-3O2   
                     C5H10OOH2-4O2   C5H10OOH2-5O2   C5H10OOH3-1O2   C5H10OOH3-2O2   NC5KET12        
                     NC5KET13        NC5KET14        NC5KET15        NC5KET21        NC5KET23        
                     NC5KET24        NC5KET25        NC5KET31        NC5KET32        C5H10OH-1       
                     C5H10OH-2       O2C5H10OH-1     O2C5H10OH-2     NC6H14          C6H13-1         
                     C6H13-2         C6H13-3         C6H12-1         C6H12-2         C6H12-3         
                     C6H111-3        C6H111-4        C6H111-5        C6H111-6        C6H112-4        
                     C6H112-5        C6H112-6        C6H113-1        C6H11O1-3       C6H11O2-4       
                     C6H12O1-2       C6H12O1-3       C6H12O1-4       C6H12O1-5       C6H12O2-3       
                     C6H12O2-4       C6H12O2-5       C6H12O3-4       C6H13O2H-1      C6H13O2H-2      
                     C6H13O2H-3      C6H13O2-1       C6H13O2-2       C6H13O2-3       C6H12OOH1-2     
                     C6H12OOH1-3     C6H12OOH1-4     C6H12OOH1-5     C6H12OOH2-1     C6H12OOH2-3     
                     C6H12OOH2-4     C6H12OOH2-5     C6H12OOH2-6     C6H12OOH3-1     C6H12OOH3-2     
                     C6H12OOH3-4     C6H12OOH3-5     C6H12OOH3-6     C6H12OOH1-2O2   C6H12OOH1-3O2   
                     C6H12OOH1-4O2   C6H12OOH1-5O2   C6H12OOH2-1O2   C6H12OOH2-3O2   C6H12OOH2-4O2   
                     C6H12OOH2-5O2   C6H12OOH2-6O2   C6H12OOH3-1O2   C6H12OOH3-2O2   C6H12OOH3-4O2   
                     C6H12OOH3-5O2   C6H12OOH3-6O2   NC6KET12        NC6KET13        NC6KET14        
                     NC6KET15        NC6KET21        NC6KET23        NC6KET24        NC6KET25        
                     NC6KET26        NC6KET31        NC6KET32        NC6KET34        NC6KET35        
                     NC6KET36        C6H13O-1        C6H13O-2        C6H13O-3        C6H12OH-1       
                     C6H12OH-2       C6H12OH-3       O2C6H12OH-1     O2C6H12OH-2     O2C6H12OH-3     
                     NC4H9CHO        NC4H9CO         C4H8CHO-1       C4H8CHO-2       C4H8CHO-3       
                     C4H8CHO-4       AC3H5CHO        AC3H5CO         C2H3CHCHO       NC3H7COCH3      
                     NC3H7COCH2      C3H6COCH3-1     C3H6COCH3-2     C3H6COCH3-3     C2H5COC2H5      
                     C2H5COC2H4P     C2H5COC2H4S     C2H5COC2H3      PC2H4COC2H3     SC2H4COC2H3     
                     NC7H16          C7H15-1         C7H15-2         C7H15-3         C7H15-4         
                     C7H14-1         C7H14-2         C7H14-3         C7H131-3        C7H131-4        
                     C7H131-5        C7H131-6        C7H131-7        C7H132-4        C7H132-5        
                     C7H132-6        C7H132-7        C7H133-1        C7H133-5        C7H133-6        
                     C7H133-7        C7H13O1-3       C7H13O2-4       C7H13O3-5       C7H15O2-1       
                     C7H15O2-2       C7H15O2-3       C7H15O2-4       C7H15O2H-1      C7H15O2H-2      
                     C7H15O2H-3      C7H15O2H-4      C7H15O-1        C7H15O-2        C7H15O-3        
                     C7H15O-4        C7H14OOH1-2     C7H14OOH1-3     C7H14OOH1-4     C7H14OOH1-5     
                     C7H14OOH2-1     C7H14OOH2-3     C7H14OOH2-4     C7H14OOH2-5     C7H14OOH2-6     
                     C7H14OOH3-1     C7H14OOH3-2     C7H14OOH3-4     C7H14OOH3-5     C7H14OOH3-6     
                     C7H14OOH3-7     C7H14OOH4-1     C7H14OOH4-2     C7H14OOH4-3     C7H14OOH1-2O2   
                     C7H14OOH1-3O2   C7H14OOH1-4O2   C7H14OOH1-5O2   C7H14OOH2-1O2   C7H14OOH2-3O2   
                     C7H14OOH2-4O2   C7H14OOH2-5O2   C7H14OOH2-6O2   C7H14OOH3-1O2   C7H14OOH3-2O2   
                     C7H14OOH3-4O2   C7H14OOH3-5O2   C7H14OOH3-6O2   C7H14OOH3-7O2   C7H14OOH4-1O2   
                     C7H14OOH4-2O2   C7H14OOH4-3O2   C7H14O1-2       C7H14O1-3       C7H14O1-4       
                     C7H14O1-5       C7H14O2-3       C7H14O2-4       C7H14O2-5       C7H14O2-6       
                     C7H14O3-4       C7H14O3-5       NC7KET12        NC7KET13        NC7KET14        
                     NC7KET15        NC7KET21        NC7KET23        NC7KET24        NC7KET25        
                     NC7KET26        NC7KET31        NC7KET32        NC7KET34        NC7KET35        
                     NC7KET36        NC7KET37        NC7KET41        NC7KET42        NC7KET43        
                     C7H14OH-1       C7H14OH-2       C7H14OH-3       O2C7H14OH-1     O2C7H14OH-2     
                     O2C7H14OH-3     NC5H11CHO       NC5H11CO        C5H10CHO-1      C5H10CHO-2      
                     C5H10CHO-3      C5H10CHO-4      C5H10CHO-5      C4H7CHO1-4      C4H7CO1-4       
                     C4H6CHO1-43     C4H6CHO1-44     NC4H9COCH3      NC4H9COCH2      C4H8COCH3-1     
                     C4H8COCH3-2     C4H8COCH3-3     C4H8COCH3-4     C4H7OOH1-4      C4H7O1-4        
                     C5H9OOH1-4      C5H9O1-4        C5H9OOH1-5      C5H9O1-5        C6H11OOH1-4     
                     C6H11O1-4       C6H11OOH1-5     C6H11O1-5       C5H91-1         C4H7CHO1-1      
                     C4H7CO1-1       C4H6CHO1-14     C4H6CHO1-13     NC3H7COC2H5     C3H6COC2H5-1    
                     C3H6COC2H5-2    C3H6COC2H5-3    NC3H7COC2H4P    NC3H7COC2H4S    CHCHCHO         
                     C6H101-3        C6H101-4        C6H101-5        C6H102-4        ETES1           
                     MVOX            VTHF            EDHF            ETC6            KES1            
                     C6H111O2H-3     C6H111O2H-4     C6H111O2H-5     C6H111O2H-6     C6H112O2H-4     
                     C6H112O2H-5     C6H112O2H-6     C6H113O2H-2     C6H113O2H-1     NC6D1KET34      
                     NC6D1KET35      NC6D1KET36      NC6D1KET43      NC6D1KET45      NC6D1KET46      
                     NC6D1KET53      NC6D1KET54      NC6D1KET56      NC6D1KET63      NC6D1KET64      
                     NC6D1KET65      NC6D2KET45      NC6D2KET46      NC6D2KET54      NC6D2KET56      
                     NC6D2KET64      NC6D2KET65      NC6D3KET12      NC6D3KET21      C6H112O2-1      
                     C6H111O2-3      C6H111O2-4      C6H111O2-5      C6H111O2-6      C6H112O2-4      
                     C6H112O2-5      C6H112O2-6      C6H113O2-1      C6H113O2-2      C6H101OOH3-4    
                     C6H101OOH3-5    C6H101OOH3-6    C6H101OOH4-3    C6H101OOH4-5    C6H101OOH4-6    
                     C6H101OOH5-3    C6H101OOH5-4    C6H101OOH5-6    C6H101OOH6-3    C6H101OOH6-4    
                     C6H101OOH6-5    C6H101OOH3-4O2  C6H101OOH3-5O2  C6H101OOH3-6O2  C6H101OOH4-3O2  
                     C6H101OOH4-5O2  C6H101OOH4-6O2  C6H101OOH5-3O2  C6H101OOH5-4O2  C6H101OOH5-6O2  
                     C6H101OOH6-3O2  C6H101OOH6-4O2  C6H101OOH6-5O2  C6H102OOH5-4    C6H103OOH1-2    
                     C6H102OOH4-5    C6H102OOH4-6    C6H102OOH5-6    C6H102OOH6-4    C6H102OOH6-5    
                     C6H103OOH2-1    C6H102OOH4-5O2  C6H102OOH4-6O2  C6H102OOH5-4O2  C6H102OOH5-6O2  
                     C6H102OOH6-4O2  C6H102OOH6-5O2  C6H103OOH2-1O2  C6H103OOH1-2O2  C2H3COC3H7      
                     C5H81-4         C5H91O2-3       C5H91O2-4       C5H91O2-5       C5H81OOH3-4     
                     C5H81OOH3-5     C5H81OOH4-3     C5H81OOH4-5     C5H81OOH5-4     C5H81OOH5-3     
                     C5H92O2-1       C5H81OOH3-4O2   C5H81OOH3-5O2   C5H81OOH4-3O2   C5H81OOH4-5O2   
                     C5H81OOH5-3O2   C5H81OOH5-4O2   NC5D1KET34      NC5D1KET35      NC5D1KET43      
                     NC5D1KET45      NC5D1KET53      NC5D1KET54      CY3C5H8O        IC6KETEB        
                     IC5KETDB        NC12H26         C12H25-1        C12H25-2        C12H25-3        
                     C12H25-4        C12H25-5        C12H25-6        NC11H24         C11H23-1        
                     C11H23-2        C11H23-3        C11H23-4        C11H23-5        C11H23-6        
                     NC10H22         C10H21-1        C10H21-2        C10H21-3        C10H21-4        
                     C10H21-5        NC9H20          C9H19-1         C9H19-2         C9H19-3         
                     C9H19-4         C9H19-5         NC8H18          C8H17-1         C8H17-2         
                     C8H17-3         C8H17-4         C12H24-1        C12H24-2        C12H24-3        
                     C12H24-4        C12H24-5        C12H24-6        C11H22-1        C11H22-2        
                     C11H22-3        C11H22-4        C11H22-5        C10H20-1        C10H20-2        
                     C10H20-3        C10H20-4        C10H20-5        C9H18-1         C9H18-2         
                     C9H18-3         C9H18-4         C8H16-1         C8H16-2         C8H16-3         
                     C8H16-4         C12H25O-1       C12H25O-2       C12H25O-3       C12H25O-4       
                     C12H25O-5       C12H25O-6       C11H23O-1       C11H23O-2       C11H23O-3       
                     C11H23O-4       C11H23O-5       C11H23O-6       C10H21O-1       C10H21O-2       
                     C10H21O-3       C10H21O-4       C10H21O-5       C9H19O-1        C9H19O-2        
                     C9H19O-3        C9H19O-4        C9H19O-5        C8H17O-1        C8H17O-2        
                     C8H17O-3        C8H17O-4        C12H25O2-1      C12H25O2-2      C12H25O2-3      
                     C12H25O2-4      C12H25O2-5      C12H25O2-6      C11H23O2-1      C11H23O2-2      
                     C11H23O2-3      C11H23O2-4      C11H23O2-5      C11H23O2-6      C10H21O2-1      
                     C10H21O2-2      C10H21O2-3      C10H21O2-4      C10H21O2-5      C9H19O2-1       
                     C9H19O2-2       C9H19O2-3       C9H19O2-4       C9H19O2-5       C8H17O2-1       
                     C8H17O2-2       C8H17O2-3       C8H17O2-4       C12H25O2H-1     C12H25O2H-2     
                     C12H25O2H-3     C12H25O2H-4     C12H25O2H-5     C12H25O2H-6     C11H23O2H-1     
                     C11H23O2H-2     C11H23O2H-3     C11H23O2H-4     C11H23O2H-5     C11H23O2H-6     
                     C10H21O2H-1     C10H21O2H-2     C10H21O2H-3     C10H21O2H-4     C10H21O2H-5     
                     C9H19O2H-1      C9H19O2H-2      C9H19O2H-3      C9H19O2H-4      C9H19O2H-5      
                     C8H17O2H-1      C8H17O2H-2      C8H17O2H-3      C8H17O2H-4      C12OOH1-2       
                     C12OOH1-3       C12OOH1-4       C12OOH1-5       C12OOH2-1       C12OOH2-3       
                     C12OOH2-4       C12OOH2-5       C12OOH2-6       C12OOH3-1       C12OOH3-2       
                     C12OOH3-4       C12OOH3-5       C12OOH3-6       C12OOH3-7       C12OOH4-1       
                     C12OOH4-2       C12OOH4-3       C12OOH4-5       C12OOH4-6       C12OOH4-7       
                     C12OOH4-8       C12OOH5-1       C12OOH5-2       C12OOH5-3       C12OOH5-4       
                     C12OOH5-6       C12OOH5-7       C12OOH5-8       C12OOH5-9       C12OOH6-2       
                     C12OOH6-3       C12OOH6-4       C12OOH6-5       C12OOH6-7       C12OOH6-8       
                     C12OOH6-9       C12OOH6-10      C11OOH1-2       C11OOH1-3       C11OOH1-4       
                     C11OOH1-5       C11OOH2-1       C11OOH2-3       C11OOH2-4       C11OOH2-5       
                     C11OOH2-6       C11OOH3-1       C11OOH3-2       C11OOH3-4       C11OOH3-5       
                     C11OOH3-6       C11OOH3-7       C11OOH4-1       C11OOH4-2       C11OOH4-3       
                     C11OOH4-5       C11OOH4-6       C11OOH4-7       C11OOH4-8       C11OOH5-1       
                     C11OOH5-2       C11OOH5-3       C11OOH5-4       C11OOH5-6       C11OOH5-7       
                     C11OOH5-8       C11OOH5-9       C11OOH6-2       C11OOH6-3       C11OOH6-4       
                     C11OOH6-5       C10OOH1-2       C10OOH1-3       C10OOH1-4       C10OOH1-5       
                     C10OOH2-1       C10OOH2-3       C10OOH2-4       C10OOH2-5       C10OOH2-6       
                     C10OOH3-1       C10OOH3-2       C10OOH3-4       C10OOH3-5       C10OOH3-6       
                     C10OOH3-7       C10OOH4-1       C10OOH4-2       C10OOH4-3       C10OOH4-5       
                     C10OOH4-6       C10OOH4-7       C10OOH4-8       C10OOH5-1       C10OOH5-2       
                     C10OOH5-3       C10OOH5-4       C10OOH5-6       C10OOH5-7       C10OOH5-8       
                     C10OOH5-9       C9OOH1-2        C9OOH1-3        C9OOH1-4        C9OOH1-5        
                     C9OOH2-1        C9OOH2-3        C9OOH2-4        C9OOH2-5        C9OOH2-6        
                     C9OOH3-1        C9OOH3-2        C9OOH3-4        C9OOH3-5        C9OOH3-6        
                     C9OOH3-7        C9OOH4-1        C9OOH4-2        C9OOH4-3        C9OOH4-5        
                     C9OOH4-6        C9OOH4-7        C9OOH4-8        C9OOH5-1        C9OOH5-2        
                     C9OOH5-3        C9OOH5-4        C8OOH1-2        C8OOH1-3        C8OOH1-4        
                     C8OOH1-5        C8OOH2-1        C8OOH2-3        C8OOH2-4        C8OOH2-5        
                     C8OOH2-6        C8OOH3-1        C8OOH3-2        C8OOH3-4        C8OOH3-5        
                     C8OOH3-6        C8OOH3-7        C8OOH4-1        C8OOH4-2        C8OOH4-3        
                     C8OOH4-5        C8OOH4-6        C8OOH4-7        C8OOH4-8        C12OOH1-2O2     
                     C12OOH1-3O2     C12OOH1-4O2     C12OOH1-5O2     C12OOH2-1O2     C12OOH2-3O2     
                     C12OOH2-4O2     C12OOH2-5O2     C12OOH2-6O2     C12OOH3-1O2     C12OOH3-2O2     
                     C12OOH3-4O2     C12OOH3-5O2     C12OOH3-6O2     C12OOH3-7O2     C12OOH4-1O2     
                     C12OOH4-2O2     C12OOH4-3O2     C12OOH4-5O2     C12OOH4-6O2     C12OOH4-7O2     
                     C12OOH4-8O2     C12OOH5-1O2     C12OOH5-2O2     C12OOH5-3O2     C12OOH5-4O2     
                     C12OOH5-6O2     C12OOH5-7O2     C12OOH5-8O2     C12OOH5-9O2     C12OOH6-2O2     
                     C12OOH6-3O2     C12OOH6-4O2     C12OOH6-5O2     C12OOH6-7O2     C12OOH6-8O2     
                     C12OOH6-9O2     C12OOH6-10O2    C11OOH1-2O2     C11OOH1-3O2     C11OOH1-4O2     
                     C11OOH1-5O2     C11OOH2-1O2     C11OOH2-3O2     C11OOH2-4O2     C11OOH2-5O2     
                     C11OOH2-6O2     C11OOH3-1O2     C11OOH3-2O2     C11OOH3-4O2     C11OOH3-5O2     
                     C11OOH3-6O2     C11OOH3-7O2     C11OOH4-1O2     C11OOH4-2O2     C11OOH4-3O2     
                     C11OOH4-5O2     C11OOH4-6O2     C11OOH4-7O2     C11OOH4-8O2     C11OOH5-1O2     
                     C11OOH5-2O2     C11OOH5-3O2     C11OOH5-4O2     C11OOH5-6O2     C11OOH5-7O2     
                     C11OOH5-8O2     C11OOH5-9O2     C11OOH6-2O2     C11OOH6-3O2     C11OOH6-4O2     
                     C11OOH6-5O2     C10OOH1-2O2     C10OOH1-3O2     C10OOH1-4O2     C10OOH1-5O2     
                     C10OOH2-1O2     C10OOH2-3O2     C10OOH2-4O2     C10OOH2-5O2     C10OOH2-6O2     
                     C10OOH3-1O2     C10OOH3-2O2     C10OOH3-4O2     C10OOH3-5O2     C10OOH3-6O2     
                     C10OOH3-7O2     C10OOH4-1O2     C10OOH4-2O2     C10OOH4-3O2     C10OOH4-5O2     
                     C10OOH4-6O2     C10OOH4-7O2     C10OOH4-8O2     C10OOH5-1O2     C10OOH5-2O2     
                     C10OOH5-3O2     C10OOH5-4O2     C10OOH5-6O2     C10OOH5-7O2     C10OOH5-8O2     
                     C10OOH5-9O2     C9OOH1-2O2      C9OOH1-3O2      C9OOH1-4O2      C9OOH1-5O2      
                     C9OOH2-1O2      C9OOH2-3O2      C9OOH2-4O2      C9OOH2-5O2      C9OOH2-6O2      
                     C9OOH3-1O2      C9OOH3-2O2      C9OOH3-4O2      C9OOH3-5O2      C9OOH3-6O2      
                     C9OOH3-7O2      C9OOH4-1O2      C9OOH4-2O2      C9OOH4-3O2      C9OOH4-5O2      
                     C9OOH4-6O2      C9OOH4-7O2      C9OOH4-8O2      C9OOH5-1O2      C9OOH5-2O2      
                     C9OOH5-3O2      C9OOH5-4O2      C8OOH1-2O2      C8OOH1-3O2      C8OOH1-4O2      
                     C8OOH1-5O2      C8OOH2-1O2      C8OOH2-3O2      C8OOH2-4O2      C8OOH2-5O2      
                     C8OOH2-6O2      C8OOH3-1O2      C8OOH3-2O2      C8OOH3-4O2      C8OOH3-5O2      
                     C8OOH3-6O2      C8OOH3-7O2      C8OOH4-1O2      C8OOH4-2O2      C8OOH4-3O2      
                     C8OOH4-5O2      C8OOH4-6O2      C8OOH4-7O2      C8OOH4-8O2      C12O1-2         
                     C12O1-3         C12O1-4         C12O1-5         C12O2-3         C12O2-4         
                     C12O2-5         C12O2-6         C12O3-4         C12O3-5         C12O3-6         
                     C12O3-7         C12O4-5         C12O4-6         C12O4-7         C12O4-8         
                     C12O5-6         C12O5-7         C12O5-8         C12O6-7         C11O1-2         
                     C11O1-3         C11O1-4         C11O1-5         C11O2-3         C11O2-4         
                     C11O2-5         C11O2-6         C11O3-4         C11O3-5         C11O3-6         
                     C11O3-7         C11O4-5         C11O4-6         C11O4-7         C11O4-8         
                     C11O5-6         C11O5-7         C10O1-2         C10O1-3         C10O1-4         
                     C10O1-5         C10O2-3         C10O2-4         C10O2-5         C10O2-6         
                     C10O3-4         C10O3-5         C10O3-6         C10O3-7         C10O4-5         
                     C10O4-6         C10O4-7         C10O5-6         C9O1-2          C9O1-3          
                     C9O1-4          C9O1-5          C9O2-3          C9O2-4          C9O2-5          
                     C9O2-6          C9O3-4          C9O3-5          C9O3-6          C9O3-7          
                     C9O4-5          C9O4-6          C8O1-2          C8O1-3          C8O1-4          
                     C8O1-5          C8O2-3          C8O2-4          C8O2-5          C8O2-6          
                     C8O3-4          C8O3-5          C8O3-6          C8O4-5          C12KET1-2       
                     C12KET1-3       C12KET1-4       C12KET1-5       C12KET2-1       C12KET2-3       
                     C12KET2-4       C12KET2-5       C12KET2-6       C12KET3-1       C12KET3-2       
                     C12KET3-4       C12KET3-5       C12KET3-6       C12KET3-7       C12KET4-1       
                     C12KET4-2       C12KET4-3       C12KET4-5       C12KET4-6       C12KET4-7       
                     C12KET4-8       C12KET5-1       C12KET5-2       C12KET5-3       C12KET5-4       
                     C12KET5-6       C12KET5-7       C12KET5-8       C12KET5-9       C12KET6-2       
                     C12KET6-3       C12KET6-4       C12KET6-5       C12KET6-7       C12KET6-8       
                     C12KET6-9       C12KET6-10      C11KET1-2       C11KET1-3       C11KET1-4       
                     C11KET1-5       C11KET2-1       C11KET2-3       C11KET2-4       C11KET2-5       
                     C11KET2-6       C11KET3-1       C11KET3-2       C11KET3-4       C11KET3-5       
                     C11KET3-6       C11KET3-7       C11KET4-1       C11KET4-2       C11KET4-3       
                     C11KET4-5       C11KET4-6       C11KET4-7       C11KET4-8       C11KET5-1       
                     C11KET5-2       C11KET5-3       C11KET5-4       C11KET5-6       C11KET5-7       
                     C11KET5-8       C11KET5-9       C11KET6-2       C11KET6-3       C11KET6-4       
                     C11KET6-5       C10KET1-2       C10KET1-3       C10KET1-4       C10KET1-5       
                     C10KET2-1       C10KET2-3       C10KET2-4       C10KET2-5       C10KET2-6       
                     C10KET3-1       C10KET3-2       C10KET3-4       C10KET3-5       C10KET3-6       
                     C10KET3-7       C10KET4-1       C10KET4-2       C10KET4-3       C10KET4-5       
                     C10KET4-6       C10KET4-7       C10KET4-8       C10KET5-1       C10KET5-2       
                     C10KET5-3       C10KET5-4       C10KET5-6       C10KET5-7       C10KET5-8       
                     C10KET5-9       C9KET1-2        C9KET1-3        C9KET1-4        C9KET1-5        
                     C9KET2-1        C9KET2-3        C9KET2-4        C9KET2-5        C9KET2-6        
                     C9KET3-1        C9KET3-2        C9KET3-4        C9KET3-5        C9KET3-6        
                     C9KET3-7        C9KET4-1        C9KET4-2        C9KET4-3        C9KET4-5        
                     C9KET4-6        C9KET4-7        C9KET4-8        C9KET5-1        C9KET5-2        
                     C9KET5-3        C9KET5-4        C8KET1-2        C8KET1-3        C8KET1-4        
                     C8KET1-5        C8KET2-1        C8KET2-3        C8KET2-4        C8KET2-5        
                     C8KET2-6        C8KET3-1        C8KET3-2        C8KET3-4        C8KET3-5        
                     C8KET3-6        C8KET3-7        C8KET4-1        C8KET4-2        C8KET4-3        
                     C8KET4-5        C8KET4-6        C8KET4-7        C8KET4-8        C12H25COCH2     
                     C11H23COCH2     C10H21COCH2     C9H19COCH2      C8H17COCH2      C7H15COCH2      
                     C6H13COCH2      C5H11COCH2      C12COC2H4P      C11COC2H4P      C10COC2H4P      
                     C9COC2H4P       C8COC2H4P       C7COC2H4P       C6COC2H4P       C5COC2H4P       
                     C4COC2H4P       C11COC3H6P      C10COC3H6P      C9COC3H6P       C8COC3H6P       
                     C7COC3H6P       C6COC3H6P       C5COC3H6P       C4COC3H6P       C3COC3H6P       
                     NC3H7COC2H3     NC4H9COC2H3     C5H11COC2H3     C6H13COC2H3     NC3H7CHCO       
                     NC4H9CHCO       C5H11CHCO       C6H13CHCO       C7H15CHCO       NC12H25CHO      
                     NC11H23CHO      NC10H21CHO      NC9H19CHO       NC8H17CHO       NC7H15CHO       
                     NC6H13CHO       NC16H33CO       NC15H31CO       NC14H29CO       NC12H25CO       
                     NC11H23CO       NC10H21CO       NC9H19CO        NC8H17CO        NC7H15CO        
                     NC6H13CO        C4H8CHO4-2      IC12H25CHO      IC11H23CHO      IC10H21CHO      
                     IC9H19CHO       IC8H17CHO       IC7H15CHO       IC6H13CHO       IC5H11CHO       
                     IC4H9CHO        IC18H37CO       IC17H35CO       IC16H33CO       IC15H31CO       
                     IC14H29CO       IC12H25CO       IC11H23CO       IC10H21CO       IC9H19CO        
                     IC8H17CO        IC7H15CO        IC6H13CO        IC5H11CO        IC4H9CO         
                     NC12H25COCH2    NC11H23COCH2    NC10H21COCH2    NC9H19COCH2     NC8H17COCH2     
                     NC7H15COCH2     NC6H13COCH2     NC5H11COCH2     IC12H25COCH2    IC11H23COCH2    
                     IC10H21COCH2    IC9H19COCH2     IC8H17COCH2     IC7H15COCH2     IC6H13COCH2     
                     IC5H11COCH2     IC4H9COCH2      IC3H7COCH2      NC12H25COC2H4P  NC11H23COC2H4P  
                     NC10H21COC2H4P  NC9H19COC2H4P   NC8H17COC2H4P   NC7H15COC2H4P   NC6H13COC2H4P   
                     NC5H11COC2H4P   NC4H9COC2H4P    IC12H25COC2H4P  IC11H23COC2H4P  IC10H21COC2H4P  
                     IC9H19COC2H4P   IC8H17COC2H4P   IC7H15COC2H4P   IC6H13COC2H4P   IC5H11COC2H4P   
                     IC4H9COC2H4P    IC3H7COC2H4P    NC12H25COC2H3   NC11H23COC2H3   NC10H21COC2H3   
                     NC9H19COC2H3    NC8H17COC2H3    NC7H15COC2H3    NC6H13COC2H3    NC5H11COC2H3    
                     NC12H25COC3H6P  NC11H23COC3H6P  NC10H21COC3H6P  NC9H19COC3H6P   NC8H17COC3H6P   