units(length='cm', time='s', quantity='mol', act_energy='cal/mol')

ideal_gas(name='gas',
          elements="H N Ar C",
          species="""C2H2             C2H4             C3H3             C6H6             A2               
                     A2R5             fluorene         A3               A3L              FLTHN            
                     A4               fluoryl          BAA3L            CRYSN            BBFLTHN          
                     BKFLTHN          BAPYR            INA4             BGHIPE           H                
                     H2               CH               C                C2               CH2-3            
                     CH3              C2H              CH2-1            CH4              C2H3             
                     C2H5             C2H6             AC3H4            PC3H4            CYC3H4           
                     C3H6             AC3H5            TC3H5            SC3H5            N-C3H7           
                     I-C3H7           C3H8             C4H2             N-C4H3           I-C4H3           
                     C4H4             C4H6             I-C4H5           I-C4H7           N-C4H7           
                     C4H8             C6H5             C4H              C6H2             C5H4             
                     L-C5H4           C5H4H            C5H5             L-C5H5           C5H6             
                     C5H7             L-C5H7           L-C5H8           L-C6H4           N-C6H5           
                     C-C6H4           L-C6H6           N-C6H7           C-C6H7           I-C6H7           
                     C5H4CH3          L-C6H8           C6H813           C6H814           C5H5CH3          
                     C6H              I-C6H5           C7H8             C7H7             C3H2             
                     N-C4H5           C6H3             C4H612           C4H62            C4H61            
                     C4H512           N-C4H51          I-C4H51          C4H52            A1C2H            
                     A1C2H*           A1C2H-           N-A1C2H2         I-A1C2H2         A1C2H3           
                     A1C2H3*          A1C2H5           C9H8             C9H7             A1C2H)2          
                     A2-1             A2-2             A2T1             A2T2             C10H10           
                     C10H9            A2CH2-1          A2CH2-2          A2CH3-1          A2CH3-2          
                     A2C2H-1          A2C2H-2          A2C2H-1*         A2C2H-2*         A2C2H)2          
                     A2C2H2-1         A2C2H2-2         A2C2H5           A2C2H3-2         A2C6H4-1         
                     A2C6H4-2         A2R5H2           HA2R5            A2R5E-1          A2R5E-3          
                     A2R5E-4          A2R5E-5          A2R5E12          A3-1             A3-2             
                     A3-4             A3-9             A3C2H2-4         A3C2H-4          P2-              
                     P2               BIPHEN           BIPHENH          A2R5-1           A2R5-3           
                     A2R5-4           A2R5-5           A2R5E45          A2R5E54          ACH3CH3          
                     ACH3CH2          A3R5-7*          A3R5             C8H2             C6H12-1          
                     m1pent-4         C-C6H12          A3L-1            A3L-2            A3L-9            
                     A2C2H-23         BENZYLB          C5H8             A3R5-10*         A3LR5            
                     A2R5E34          A2R5E43          A3LR5*           A3C2H-2          A3C2H-1          
                     A3C2H-2*         A3C2H-1*         CRYSN-1          CRYSN-4          CRYSN-5          
                     BAPYR*           A3LE-1P          A3LE-2S          A3LE-2P          A3LE-1           
                     A3LE-2           BAA3L-1          BAA3L-12         BAA3L-4          A4L*             
                     A4L              BBFLTHN*         A3CH2            A3CH2R           A3CH3            
                     BENZNAP*         BENZNAP          C17H12           A2C6H5-2         FLTHN-1          
                     FLTHN-3          FLTHN-7          CPCDFL*          CPCDFL           CPBFL*           
                     CPBFL            BGHIF-           BGHIF            A4-1             A4-2             
                     A4-4             A4C2H-1          A4C2H-2          A4C2H-4          CPCDA4*          
                     CPCDA4           DCPA4            A4C2H-1*         A4C2H-2*         A4C2H-4*         
                     BEPYR*           BEPYR            BGHIPE*          PERYLN*          PERYLN           
                     ANTHAN           CORONEN          C6H4CH3          C8H8             C8H12            
                     indenCH3         indylCH3         N2               AR               h2cc             
                     ic4h7            ic4h8            c4h8-2           C5H8b             c6h11            
                     tc4h9            ic4h9            sc4h9            ic4h10           c6h12-2          
                     c5h9             ic5h9            ic4h7-i1         pc4h9            ac5h10           
                     c5h10-1          c5h10-2          bc5h10           cc5h10           c4h10            
                     n                nh               nh2              nh3              nnh              
                     cn               hcn              h2cn             hnc              nccn             
                     hcnh             hcnn             c5h2             c5h3             i-C6H5b           
                     i-c6h7b           P2-h             c*cc(c#c)*c      fulvene          fulvenyl         
                     h2cccch          ch3chcch         ch3c6h4c2h3      ch3c6h4c2h5      l-c5h7b           
                     c10h7c2h3        c10h7cch2        ch3indene        ch3indenyl       ch3phnthrn       
                     h2cccch2         hc4-p(def)pthyl  bz(a)ndene       bz(a)ndnyl       ch3dcy24pd       
                     c3h              h2ccccch         c6h4c4h4         c6h5c4h4         c6h5c4h5         
                     a2r5ch2          a2r5ch3          a3ch2b            A3C2H-4*         a2l2a1*""",
          reactions='all',
          initial_state=state(temperature=300.0, pressure=OneAtm))

#-------------------------------------------------------------------------------
# Species data
#-------------------------------------------------------------------------------

species(name='C2H2',
        atoms='H:2 C:2',
        thermo=(NASA([300.00, 1000.00],
                     [ 2.01356200E+00,  1.51904500E-02, -1.61631900E-05,
                       9.07899200E-09, -1.91274600E-12,  2.61244400E+04,
                       8.80537800E+00]),
                NASA([1000.00, 5000.00],
                     [ 4.43677000E+00,  5.37603900E-03, -1.91281700E-06,
                       3.28637900E-10, -2.15671000E-14,  2.56676600E+04,
                      -2.80033800E+00])),
        note='121386')

species(name='C2H4',
        atoms='H:4 C:2',
        thermo=(NASA([300.00, 1000.00],
                     [-8.61488000E-01,  2.79616300E-02, -3.38867700E-05,
                       2.78515200E-08, -9.73787900E-12,  5.57304600E+03,
                       2.42114900E+01]),
                NASA([1000.00, 5000.00],
                     [ 3.52841900E+00,  1.14851800E-02, -4.41838500E-06,
                       7.84460100E-10, -5.26684800E-14,  4.42828900E+03,
                       2.23038900E+00])),
        note='121286')

species(name='C3H3',
        atoms='H:3 C:3',
        thermo=(NASA([300.00, 1000.00],
                     [ 4.75420000E+00,  1.10802800E-02,  2.79332300E-07,
                      -5.47921200E-09,  1.94962900E-12,  3.98888300E+04,
                       5.85454900E-01]),
                NASA([1000.00, 4000.00],
                     [ 8.83104700E+00,  4.35719500E-03, -4.10906700E-07,
                      -2.36872300E-10,  4.37652000E-14,  3.84742000E+04,
                      -2.17791900E+01])),
        note='-82489')

species(name='C6H6',
        atoms='H:6 C:6',
        thermo=(NASA([300.00, 1390.00],
                     [-5.18689051E+00,  6.30511006E-02, -4.82874623E-05,
                       1.89015490E-08, -3.01017276E-12,  9.09950343E+03,
                       4.50744831E+01]),
                NASA([1390.00, 5000.00],
                     [ 1.38672847E+01,  1.74152368E-02, -6.08383755E-06,
                       9.58140923E-10, -5.61503296E-14,  2.59989001E+03,
                      -5.68524653E+01])),
        note='-therm')

species(name='A2',
        atoms='H:8 C:10',
        thermo=(NASA([300.00, 1400.00],
                     [-8.84119851E+00,  1.09328196E-01, -9.50844165E-05,
                       4.18320252E-08, -7.33414017E-12,  1.68163789E+04,
                       5.86791942E+01]),
                NASA([1400.00, 5000.00],
                     [ 2.35897511E+01,  2.43823788E-02, -8.47570474E-06,
                       1.33051182E-09, -7.77992813E-14,  6.53423379E+03,
                      -1.12133982E+02])),
        note='-therm')

species(name='A2R5',
        atoms='H:8 C:12',
        thermo=(NASA([300.00, 1000.00],
                     [-9.70116140E+00,  1.20194490E-01, -9.89076940E-05,
                       3.72408840E-08, -4.11245780E-12,  2.96019260E+04,
                       6.69705960E+01]),
                NASA([1000.00, 3000.00],
                     [ 4.58836980E+01, -2.72269030E-02,  4.15693360E-05,
                      -1.80470930E-08,  2.53513960E-12,  1.33945740E+04,
                      -2.23045840E+02])),
        note='H6W-94')

species(name='fluorene',
        atoms='C:13 H:10',
        thermo=(NASA([300.00, 1400.00],
                     [-1.14291780E+01,  1.40625771E-01, -1.21919889E-04,
                       5.33286885E-08, -9.28204948E-12,  1.91832070E+04,
                       7.47141338E+01]),
                NASA([1400.00, 5000.00],
                     [ 3.04476803E+01,  3.11178654E-02, -1.07640759E-05,
                       1.68444388E-09, -9.82875496E-14,  5.92347405E+03,
                      -1.45855799E+02])),
        note='HR11/99BLYP')

species(name='A3',
        atoms='H:10 C:14',
        thermo=(NASA([300.00, 1000.00],
                     [-1.22752260E+01,  1.50322560E-01, -1.38628010E-04,
                       6.93767670E-08, -1.51054450E-11,  2.30304920E+04,
                       7.88891450E+01]),
                NASA([1000.00, 3000.00],
                     [ 5.59164730E+01, -3.52532010E-02,  5.25229260E-05,
                      -2.26726340E-08,  3.17705840E-12,  3.26546090E+03,
                      -2.76049800E+02])),
        note='H6W-94')

species(name='A3L',
        atoms='H:10 C:14',
        thermo=(NASA([300.00, 1388.00],
                     [-9.00855994E+00,  1.33073568E-01, -1.06795088E-04,
                       4.39063506E-08, -7.34436815E-12,  2.53717391E+04,
                       6.26023210E+01]),
                NASA([1388.00, 5000.00],
                     [ 3.15659624E+01,  3.37289576E-02, -1.18905510E-05,
                       1.88392365E-09, -1.10863384E-13,  1.16966433E+04,
                      -1.53763359E+02])),
        note='-mar95')

species(name='FLTHN',
        atoms='H:10 C:16',
        thermo=(NASA([300.00, 1393.00],
                     [-1.03602843E+01,  1.51242775E-01, -1.25613062E-04,
                       5.25039366E-08, -8.78103946E-12,  3.24950912E+04,
                       6.97013658E+01]),
                NASA([1393.00, 5000.00],
                     [ 3.61459490E+01,  3.43535281E-02, -1.19815211E-05,
                       1.88549603E-09, -1.10454694E-13,  1.72902637E+04,
                      -1.76942587E+02])))

species(name='A4',
        atoms='H:10 C:16',
        thermo=(NASA([300.00, 1000.00],
                     [-1.31524443E+01,  1.60878843E-01, -1.27719717E-04,
                       3.90918898E-08,  7.43991125E-14,  2.49673872E+04,
                       8.07618418E+01]),
                NASA([1000.00, 3000.00],
                     [ 4.54060055E+00,  9.98115207E-02, -6.06376301E-05,
                       1.73575019E-08, -1.89902318E-12,  2.12755890E+04,
                      -6.19295231E+00])),
        note='H6W-94')

species(name='fluoryl',
        atoms='C:13 H:9',
        thermo=(NASA([300.00, 1000.00],
                     [-4.89310000E+00,  1.08400000E-01, -7.69960000E-05,
                       2.64500000E-08, -3.53820000E-12,  3.34003363E+04,
                       6.12894768E+01]),
                NASA([1000.00, 1500.00],
                     [-4.89310000E+00,  1.08400000E-01, -7.69960000E-05,
                       2.64500000E-08, -3.53820000E-12,  3.34003363E+04,
                       6.12894768E+01])),
        note='Mari')

species(name='BAA3L',
        atoms='C:18 H:12',
        thermo=(NASA([300.00, 1396.00],
                     [-1.09140922E+01,  1.70112390E-01, -1.40590704E-04,
                       5.88710739E-08, -9.88423095E-12,  3.11466099E+04,
                       7.34991683E+01]),
                NASA([1396.00, 5000.00],
                     [ 4.03265821E+01,  4.07367876E-02, -1.41254026E-05,
                       2.21402777E-09, -1.29334587E-13,  1.44447416E+04,
                      -1.98056385E+02])),
        note='CJPMM300')

species(name='CRYSN',
        atoms='H:12 C:18',
        thermo=(NASA([300.00, 1387.00],
                     [-1.07783227E+01,  1.67404365E-01, -1.34917078E-04,
                       5.56343589E-08, -9.32756932E-12,  3.34874835E+04,
                       7.08724949E+01]),
                NASA([1387.00, 5000.00],
                     [ 4.04569002E+01,  4.18109769E-02, -1.47595774E-05,
                       2.34058824E-09, -1.37822822E-13,  1.62338981E+04,
                      -2.02290620E+02])))

species(name='BBFLTHN',
        atoms='C:20 H:12',
        thermo=(NASA([300.00, 1396.00],
                     [-1.21872196E+01,  1.86403342E-01, -1.56436955E-04,
                       6.61852991E-08, -1.11867885E-11,  3.89302853E+04,
                       7.85360438E+01]),
                NASA([1396.00, 5000.00],
                     [ 4.43530126E+01,  4.25497219E-02, -1.47832424E-05,
                       2.32027261E-09, -1.35670659E-13,  2.06334287E+04,
                      -2.20678121E+02])),
        note='CJPMM300')

species(name='BKFLTHN',
        atoms='C:20 H:12',
        thermo=(NASA([300.00, 1397.00],
                     [-1.23690479E+01,  1.87345934E-01, -1.57838371E-04,
                       6.70342389E-08, -1.13697641E-11,  3.99297385E+04,
                       7.85811719E+01]),
                NASA([1397.00, 5000.00],
                     [ 4.44105644E+01,  4.25045158E-02, -1.47684288E-05,
                       2.31803902E-09, -1.35543710E-13,  2.15909272E+04,
                      -2.21769416E+02])),
        note='CJPMM300')

species(name='BAPYR',
        atoms='C:20 H:12',
        thermo=(NASA([300.00, 1396.00],
                     [-1.19841377E+01,  1.84106911E-01, -1.52761044E-04,
                       6.39685561E-08, -1.07196243E-11,  3.45298004E+04,
                       7.73099666E+01]),
                NASA([1396.00, 5000.00],
                     [ 4.39390181E+01,  4.29285563E-02, -1.49199239E-05,
                       2.34223140E-09, -1.36974444E-13,  1.63161947E+04,
                      -2.19040740E+02])),
        note='CJPMM300')

species(name='INA4',
        atoms='C:22 H:12',
        thermo=(NASA([300.00, 1381.00],
                     [-1.14383875E+01,  1.84037939E-01, -1.38944611E-04,
                       5.24653842E-08, -8.00697910E-12,  4.24074317E+04,
                       7.34314710E+01]),
                NASA([1381.00, 5000.00],
                     [ 4.76653784E+01,  4.65937341E-02, -1.65769176E-05,
                       2.64248784E-09, -1.56163481E-13,  2.18367238E+04,
                      -2.44196906E+02])),
        note='5/2/97THERM')

species(name='BGHIPE',
        atoms='C:22 H:12',
        thermo=(NASA([300.00, 1369.00],
                     [-1.36730450E+00,  1.48143318E-01, -9.16739936E-05,
                       2.57814320E-08, -2.54438862E-12,  3.09195278E+04,
                       2.56313149E+01]),
                NASA([1369.00, 5000.00],
                     [ 4.81256280E+01,  4.63751387E-02, -1.65412148E-05,
                       2.64117181E-09, -1.56262861E-13,  1.22951825E+04,
                      -2.45189878E+02])),
        note='4/19/97THERM')

species(name='H',
        atoms='H:1',
        thermo=(NASA([300.00, 1000.00],
                     [ 2.51984000E+00, -2.59920000E-05,  6.27898000E-08,
                      -6.29951000E-11,  2.23973000E-14,  2.54641000E+04,
                      -5.63259000E-01]),
                NASA([1000.00, 5000.00],
                     [ 2.51382000E+00,  4.09189000E-06, -2.41082000E-09,
                       5.71874000E-13, -4.70917000E-17,  2.54654000E+04,
                      -5.34746000E-01])),
        note='-therm')

species(name='H2',
        atoms='H:2',
        thermo=(NASA([300.00, 1000.00],
                     [ 3.43853000E+00,  1.44314000E-04, -1.08191000E-07,
                       2.16839000E-10, -5.54307000E-14, -1.03749000E+03,
                      -3.92682000E+00]),
                NASA([1000.00, 5000.00],
                     [ 2.50170000E+00,  1.78083000E-03, -7.80013000E-07,
                       1.48437000E-10, -1.03401000E-14, -6.86891000E+02,
                       1.25553000E+00])))

species(name='CH',
        atoms='H:1 C:1',
        thermo=(NASA([300.00, 1000.00],
                     [ 3.20020200E+00,  2.07287600E-03, -5.13443100E-06,
                       5.73389000E-09, -1.95553300E-12,  7.04525900E+04,
                       3.33158800E+00]),
                NASA([1000.00, 5000.00],
                     [ 2.19622300E+00,  2.34038100E-03, -7.05820100E-07,
                       9.00758200E-11, -3.85504000E-15,  7.08672300E+04,
                       9.17837300E+00])),
        note='121286')

species(name='C',
        atoms='C:1',
        thermo=(NASA([200.00, 1000.00],
                     [ 2.55423955E+00, -3.21537724E-04,  7.33792245E-07,
                      -7.32234889E-10,  2.66521446E-13,  8.54438832E+04,
                       4.53130848E+00]),
                NASA([1000.00, 3500.00],
                     [ 2.49266888E+00,  4.79889284E-05, -7.24335020E-08,
                       3.74291029E-11, -4.87277893E-15,  8.54512953E+04,
                       4.80150373E+00])),
        note='L11-88')

species(name='C2',
        atoms='C:2',
        thermo=(NASA([300.00, 1000.00],
                     [ 6.99604500E+00, -7.40060200E-03,  3.23470400E-06,
                       4.80253500E-09, -3.29591800E-12,  9.89748700E+04,
                      -1.38622700E+01]),
                NASA([1000.00, 5000.00],
                     [ 4.13597900E+00,  6.53161800E-05,  1.83709900E-07,
                      -5.29508500E-11,  4.71213700E-15,  9.96727200E+04,
                       7.47292300E-01])),
        note='121286')

species(name='CH2-3',
        atoms='H:2 C:1',
        thermo=(NASA([250.00, 1000.00],
                     [ 3.76223700E+00,  1.15981900E-03,  2.48958500E-07,
                       8.80083600E-10, -7.33243500E-13,  4.53679100E+04,
                       1.71257800E+00]),
                NASA([1000.00, 4000.00],
                     [ 3.63640800E+00,  1.93305700E-03, -1.68701600E-07,
                      -1.00989900E-10,  1.80825600E-14,  4.53413400E+04,
                       2.15656100E+00])),
        note='120186')

species(name='CH3',
        atoms='H:3 C:1',
        thermo=(NASA([300.00, 1000.00],
                     [ 2.43044300E+00,  1.11241000E-02, -1.68022000E-05,
                       1.62182900E-08, -5.86495300E-12,  1.64237800E+04,
                       6.78979400E+00]),
                NASA([1000.00, 5000.00],
                     [ 2.84405200E+00,  6.13797400E-03, -2.23034500E-06,
                       3.78516100E-10, -2.45215900E-14,  1.64378100E+04,
                       5.45269700E+00])),
        note='121286')

species(name='C2H',
        atoms='H:1 C:2',
        thermo=(NASA([300.00, 1000.00],
                     [ 2.73770400E+00,  8.04844600E-03, -9.24431000E-06,
                       6.52525900E-09, -1.93958000E-12,  6.68381300E+04,
                       7.30022000E+00]),
                NASA([1000.00, 4000.00],
                     [ 3.98636700E+00,  3.14312300E-03, -1.26724300E-06,
                       2.92436300E-10, -2.71632000E-14,  6.65588400E+04,
                       1.19106300E+00])),
        note='-81193')

species(name='CH2-1',
        atoms='H:2 C:1',
        thermo=(NASA([300.00, 1000.00],
                     [ 3.97126500E+00, -1.69908900E-04,  1.02536900E-06,
                       2.49255100E-09, -1.98126600E-12,  4.98936800E+04,
                       5.75320700E-02]),
                NASA([1000.00, 4000.00],
                     [ 3.55288900E+00,  2.06678800E-03, -1.91411600E-07,
                      -1.10467300E-10,  2.02135000E-14,  4.98497500E+04,
                       1.68657000E+00])),
        note='-31287')

species(name='CH4',
        atoms='H:4 C:1',
        thermo=(NASA([300.00, 1000.00],
                     [ 7.78741500E-01,  1.74766800E-02, -2.78340900E-05,
                       3.04970800E-08, -1.22393100E-11, -9.82522900E+03,
                       1.37221900E+01]),
                NASA([1000.00, 5000.00],
                     [ 1.68347900E+00,  1.02372400E-02, -3.87512900E-06,
                       6.78558500E-10, -4.50342300E-14, -1.00807900E+04,
                       9.62339500E+00])),
        note='121286')

species(name='C2H3',
        atoms='H:3 C:2',
        thermo=(NASA([300.00, 1000.00],
                     [ 2.45927600E+00,  7.37147600E-03,  2.10987300E-06,
                      -1.32164200E-09, -1.18478400E-12,  3.33522500E+04,
                       1.15562000E+01]),
                NASA([1000.00, 5000.00],
                     [ 5.93346800E+00,  4.01774600E-03, -3.96674000E-07,
                      -1.44126700E-10,  2.37864400E-14,  3.18543500E+04,
                      -8.53031300E+00])),
        note='-12787')

species(name='C2H5',
        atoms='H:5 C:2',
        thermo=(NASA([300.00, 1000.00],
                     [ 2.69070200E+00,  8.71913300E-03,  4.41983900E-06,
                       9.33870300E-10, -3.92777300E-12,  1.28704000E+04,
                       1.21382000E+01]),
                NASA([1000.00, 5000.00],
                     [ 7.19048000E+00,  6.48407700E-03, -6.42806500E-07,
                      -2.34787900E-10,  3.88087700E-14,  1.06745500E+04,
                      -1.47808900E+01])),
        note='-12387')

species(name='C2H6',
        atoms='H:6 C:2',
        thermo=(NASA([300.00, 1384.00],
                     [-2.52854344E-02,  2.40764754E-02, -1.11893472E-05,
                       2.08340901E-09, -5.29868616E-14, -1.12345534E+04,
                       2.11648750E+01]),
                NASA([1384.00, 5000.00],
                     [ 6.10683385E+00,  1.29236361E-02, -4.42527196E-06,
                       6.87391726E-10, -3.98901732E-14, -1.37500014E+04,
                      -1.30081250E+01])),
        note='-therm')

species(name='AC3H4',
        atoms='H:4 C:3',
        thermo=(NASA([300.00, 1400.00],
                     [ 2.53983100E+00,  1.63343700E-02, -1.76495000E-06,
                      -4.64736500E-09,  1.72913100E-12,  2.25124300E+04,
                       9.93570200E+00]),
                NASA([1400.00, 4000.00],
                     [ 9.77625600E+00,  5.30213800E-03, -3.70111800E-07,
                      -3.02638600E-10,  5.08958100E-14,  1.95497200E+04,
                      -3.07706100E+01])),
        note='101993')

species(name='PC3H4',
        atoms='H:4 C:3',
        thermo=(NASA([300.00, 1400.00],
                     [ 3.02973000E+00,  1.49896100E-02, -1.39850000E-06,
                      -3.96961900E-09,  1.38821700E-12,  2.14840800E+04,
                       8.00459400E+00]),
                NASA([1400.00, 4000.00],
                     [ 9.76810200E+00,  5.21915100E-03, -3.75314000E-07,
                      -2.99219100E-10,  5.10787800E-14,  1.86027700E+04,
                      -3.02067800E+01])),
        note='101993')

species(name='CYC3H4',
        atoms='H:4 C:3',
        thermo=(NASA([300.00, 1000.00],
                     [-2.46210470E-02,  2.31972150E-02, -1.84743570E-06,
                      -1.59275930E-08,  8.68461550E-12,  3.23341370E+04,
                       2.27297620E+01]),
                NASA([1000.00, 5000.00],
                     [ 6.69999310E+00,  1.03573720E-02, -3.45511670E-06,
                       5.06529490E-10, -2.66822760E-14,  3.01990510E+04,
                      -1.33787700E+01])),
        note='-bur01')

species(name='C3H6',
        atoms='H:6 C:3',
        thermo=(NASA([300.00, 1388.00],
                     [ 3.94615444E-01,  2.89107662E-02, -1.54886808E-05,
                       3.88814209E-09, -3.37890352E-13,  1.06688164E+03,
                       2.19003736E+01]),
                NASA([1388.00, 5000.00],
                     [ 8.01595958E+00,  1.37023634E-02, -4.66249733E-06,
                       7.21254402E-10, -4.17370126E-14, -1.87821271E+03,
                      -2.00160668E+01])),
        note='-therm')

species(name='AC3H5',
        atoms='H:5 C:3',
        thermo=(NASA([300.00, 1397.00],
                     [-5.29131958E-01,  3.34559100E-02, -2.53401027E-05,
                       1.02865754E-08, -1.73258340E-12,  1.93834226E+04,
                       2.53067131E+01]),
                NASA([1397.00, 5000.00],
                     [ 8.45883958E+00,  1.12695483E-02, -3.83792864E-06,
                       5.94059119E-10, -3.43918030E-14,  1.63576092E+04,
                      -2.25809450E+01])),
        note='-therm')

species(name='TC3H5',
        atoms='H:5 C:3',
        thermo=(NASA([300.00, 1382.00],
                     [ 2.17916644E+00,  2.03826623E-02, -7.91413834E-06,
                       4.76906187E-10,  2.70398536E-13,  2.94895338E+04,
                       1.48785684E+01]),
                NASA([1382.00, 5000.00],
                     [ 7.37492443E+00,  1.17510061E-02, -4.00021283E-06,
                       6.18947395E-10, -3.58215018E-14,  2.72874911E+04,
                      -1.43478655E+01])),
        note='-therm')

species(name='SC3H5',
        atoms='H:5 C:3',
        thermo=(NASA([300.00, 1390.00],
                     [ 1.32807335E+00,  2.53107914E-02, -1.51530439E-05,
                       4.74345565E-09, -6.24666084E-13,  3.06873903E+04,
                       1.83328787E+01]),
                NASA([1390.00, 5000.00],
                     [ 7.88765879E+00,  1.13012591E-02, -3.84213130E-06,
                       5.93982677E-10, -3.43567175E-14,  2.82377716E+04,
                      -1.74291589E+01])),
        note='-therm')

species(name='N-C3H7',
        atoms='H:7 C:3',
        thermo=(NASA([300.00, 1000.00],
                     [ 1.92253700E+00,  2.47892700E-02,  1.81024900E-06,
                      -1.78326600E-08,  8.58299600E-12,  9.71328100E+03,
                       1.39927100E+01]),
                NASA([1000.00, 5000.00],
                     [ 7.97829100E+00,  1.57611300E-02, -5.17324300E-06,
                       7.44389200E-10, -3.82497800E-14,  7.57940200E+03,
                      -1.93561100E+01])),
        note='120186')

species(name='I-C3H7',
        atoms='H:7 C:3',
        thermo=(NASA([300.00, 1000.00],
                     [ 1.71330000E+00,  2.54261600E-02,  1.58080800E-06,
                      -1.82128600E-08,  8.82771000E-12,  7.53580900E+03,
                       1.29790100E+01]),
                NASA([1000.00, 5000.00],
                     [ 8.06336900E+00,  1.57448800E-02, -5.18239200E-06,
                       7.47724500E-10, -3.85442200E-14,  5.31387100E+03,
                      -2.19264700E+01])),
        note='120186')

species(name='C3H8',
        atoms='H:8 C:3',
        thermo=(NASA([300.00, 1000.00],
                     [ 8.96920800E-01,  2.66898600E-02,  5.43142500E-06,
                      -2.12600100E-08,  9.24333000E-12, -1.39549200E+04,
                       1.93553300E+01]),
                NASA([1000.00, 5000.00],
                     [ 7.52521700E+00,  1.88903400E-02, -6.28392400E-06,
                       9.17937300E-10, -4.81241000E-14, -1.64645500E+04,
                      -1.78439000E+01])),
        note='120186')

species(name='C4H2',
        atoms='H:2 C:4',
        thermo=(NASA([300.00, 1000.00],
                     [-3.92010300E-01,  5.19375650E-02, -9.17373400E-05,
                       8.04719860E-08, -2.68982180E-11,  5.48452660E+04,
                       2.09577940E+01]),
                NASA([1000.00, 3000.00],
                     [ 8.66377080E+00,  6.72471890E-03, -2.35933970E-06,
                       3.75063800E-10, -2.22309400E-14,  5.32522750E+04,
                      -2.10935030E+01])),
        note='P-1-93')

species(name='N-C4H3',
        atoms='H:3 C:4',
        thermo=(NASA([300.00, 1000.00],
                     [-3.16841130E-01,  4.69121000E-02, -6.80938100E-05,
                       5.31799210E-08, -1.65230050E-11,  6.24761990E+04,
                       2.46225590E+01]),
                NASA([1000.00, 3000.00],
                     [ 5.43282790E+00,  1.68609810E-02, -9.43131090E-06,
                       2.57038950E-09, -2.74563090E-13,  6.16006800E+04,
                      -1.56739810E+00])),
        note='H6W-94')

species(name='I-C4H3',
        atoms='H:3 C:4',
        thermo=(NASA([300.00, 1000.00],
                     [ 2.08304120E+00,  4.08342740E-02, -6.21596850E-05,
                       5.16793580E-08, -1.70291840E-11,  5.80051290E+04,
                       1.36174620E+01]),