units(length='cm', time='s', quantity='mol', act_energy='cal/mol')

ideal_gas(name='gas',
          elements="C H N O Ar He",
          species="""H                 H2                O                 O2                OH                
                     OH*               H2O               N2                HO2               H2O2              
                     AR                CO                CO2               CH2O              HCO               
                     HO2CHO            HCOH              O2CHO             HOCHO             OCHO              
                     HOCH2O2H          HOCH2O2           OCH2O2H           HOCH2O            CH3OH             
                     CH2OH             CH3O              CH3O2H            CH3O2             CH4               
                     CH3               CH2               CH2(S)            C                 CH                
                     CH*               C2H6              C2H5              C2H4              C2H3              
                     C2H2              C2H               CH3CHO            C2H3OH            C2H2OH            
                     CH3CO             CH2CHO            O2CH2CHO          HO2CH2CO          CH2CO             
                     HCCO              HCCOH             CH3CO3H           CH3CO3            CH3CO2            
                     C2H5OH            C2H5O             PC2H4OH           SC2H4OH           O2C2H4OH          
                     C2H5O2H           C2H5O2            C2H4O2H           C2H4O1-2          C2H3O1-2          
                     CH3COCH3          CH3COCH2          CH3COCH2O2        C3KET21           C2H3CHO           
                     C2H3CO            C2H5CHO           C2H5CO            CH3OCH3           CH3OCH2           
                     CH3OCH2O2         CH2OCH2O2H        CH3OCH2O2H        CH3OCH2O          O2CH2OCH2O2H      
                     HO2CH2OCHO        OCH2OCHO          HOCH2OCO          CH3OCHO           CH3OCO            
                     CH2OCHO           HE                C3H8              IC3H7             NC3H7             
                     C3H6              C3H5-A            C3H5-S            C3H5-T            C3H4-P            
                     C3H4-A            C3H3              C3H5O             C3H6OOH1-2        C3H6OOH1-3        
                     C3H6OOH2-1        C3H6OOH1-2O2      C3H6OOH1-3O2      C3H6OOH2-1O2      NC3H7O2H          
                     IC3H7O2H          NC3H7O2           IC3H7O2           NC3H7O            IC3H7O            
                     C3H6O1-2          C3H6O1-3          C3KET12           C3KET13           C3H51-2,3OOH      
                     C3H52-1,3OOH      C3H5O1-2OOH-3     C3H5O1-3OOH-2     C3H6OH1-2         CH3CHCO           
                     AC3H5OOH          C2H3OOH           CC3H4             H2CC              FULVENE           
                     CC3H6             C4H10             C4H8-1            C4H8-2            PC4H9             
                     SC4H9             C4H71-1           C4H71-2           C4H71-3           C4H71-4           
                     C4H72-2           C4H6              PC4H9O2H          SC4H9O2H          PC4H9O2           
                     SC4H9O2           PC4H9O            SC4H9O            C4H71-O           C4H8O1-2          
                     C4H8O1-3          C4H8O1-4          C4H8O2-3          SC4H8OH-3         C4H8OH-1O2        
                     C4H8OH-2O2        C4H8OOH1-2        C4H8OOH1-3        C4H8OOH1-4        C4H8OOH2-1        
                     C4H8OOH2-3        C4H8OOH2-4        C4H8OOH1-2O2      C4H8OOH1-3O2      C4H8OOH1-4O2      
                     C4H8OOH2-1O2      C4H8OOH2-3O2      C4H8OOH2-4O2      C4H72-1OOH        C4H71-4OOH        
                     C4H71-3OOH        C4H71-3,4OOH      C4H72-3,4OOH      C4H71-2,4OOH      C4H72-1,3OOH      
                     C4H72-1,4OOH      C4H71-2,3OOH      C4H7O1-3OOH-4     C4H7O1-3OOH-2     C4H7O1-2OOH-4     
                     C4H7O1-4OOH-2     C4H7O1-2OOH-3     C4H7O2-3OOH-1     HO2CH2CHO         NC4KET12          
                     NC4KET13          NC4KET14          NC4KET21          NC4KET23          NC4KET24          
                     C2H5COCH3         C2H5COCH2         CH2CH2COCH3       CH3CHCOCH3        C2H3COCH3         
                     CH3CHOOCOCH3      CH2CHOOHCOCH3     NC3H7CHO          NC3H7CO           C3H6CHO-3         
                     C3H6CHO-2         C3H6CHO-1         C2H5CHCO          SC3H5CHO          SC3H5CO           
                     CH2CH2CHO         IC4H10            IC4H9             IC4H8             IC4H7             
                     TC4H9             TC4H9O2           IC4H7OOCH3        IC4H7OOIC4H7      IC3H5OCH2         
                     IC4H7-I1          IC4H8OH-IT        IC4H8OH-TI        IQJC4H8OH         IQC4H8OT          
                     TQJC4H8OH         TQC4H8OI          TQC4H7OHI         IC3H4CHO-A        QC4H7OHP          
                     IQC4H7OHT         SC4H7OH-IP        C2CY(COC)OH       CCY(CCO)COH       CCY(CCOC)OH       
                     IC3H6OHCHO        CH3COCOOH         IC3H5COHQ         IC3H5Q            TQC4H7OHIO2       
                     TQC4H7OHIQ-I      TQC4H7OHIQ-P      CH2CQCOHQ         COHQCYC(COC)      QCYC(CCOC)OH      
                     TQC4H7OHTO2       HOCOCQ(CH3)2      IQC4H7OHTO2       TC3H6OH           IQC4H7OHTQ-P      
                     IQC4H8OTQ-I       CH2COHCH2OOH      IC4H6Q2-II        CO(CH2OOH)2       CHOC(CH3)OHCH2Q   
                     CH3COCHO          SC4H7OH-I         CCYCCC            H15DE25DM         H15DE25DM-S       
                     H15DE25DM-A       H15DE25DM-AO      H15DE2M-T         H15DE25DM-SO      IC4H7CHO          
                     IC4H7O2           IC4H6OOH-I        C*CYCCOC          CCYCCOOC-T1       CCYCCOOC-I2       
                     CHOIC3H6O         CCY(C2O)CO        CCYCCO-T1         C2CYCOOC-I1       IC3H5OOCH2        
                     B2E3M1OJ          B13DE2M           B13DE2MJ          B2E2M1OJ          B12DE3M           
                     IC4H9O2           TC4H8O2H-I        IC4H8O2H-I        IC4H8O2H-T        IC4H8O            
                     CC4H8O            IC4H9O            TC4H9O            IC4H9O2H          TC4H9O2H          
                     IC4H7O            IC4H8OH           IC3H7CHO          TC3H6CHO          IC3H7CO           
                     IC3H6CHO          TC4H8OOH-IO2      IC4H8OOH-IO2      IC4H8OOH-TO2      IC4KETII          
                     IC4KETIT          IC4H7OH           IC4H6OH           IC3H5CHO          IC3H5CO           
                     TC3H6OCHO         IC3H6CO           IC4H7OOH          TC3H6OHCHO        C3H6OH2-1         
                     IC3H5OH           TC3H6O2CHO        TC3H6O2HCO        IC3H5O2HCHO       CH2CCH2OH         
                     TC4H8CHO          O2C4H8CHO         O2HC4H8CO         C3H5OH            TIC4H7Q2-I        
                     IIC4H7Q2-T        IIC4H7Q2-I        CH2O2H            C4H4              C4H3-I            
                     C4H3-N            C4H612            C4H2              C4H5-I            C4H5-N            
                     CH2CHCHCHO        C4H6O25           C2H3CHOCH2        C4H5-2            C4H6-2            
                     C4H6O23           C4H4O             H2C4O             C2H3OCH2          C6H6              
                     C*CCJC*C          C6H5              C6H2              C6H3              L-C6H4            
                     C-C6H4            C6H5O             C6H5OH            P-C6H4O2          O-C6H4O2          
                     P-C6H3O2          C5H6              C5H5              C5H4O             C5H5O             
                     C5H5OH            C5H4OH            C5H3O             C6H5OO            C6H5OOH           
                     OC6H4OH           C6H4OH            O-OC6H5OJ         P-OC6H5OJ         C#CC*CCJ          
                     C5H6-L            CJ*CC*CC*O        C*CC*CCJ*O        CJ*CC*O           C5H7              
                     OC5H7O            C*CCJC*COH        C*CC*CCJ          C*CC*CCOH         OC4H6O            
                     OC4H5O            HOCO              HOC*CC*O          HOC*CCJ*O         O2CCHOOJ          
                     C6H101-5          C6H9-A            C3H2              C3H2(S)           C3H2C             
                     H2CCC(S)          C3H3O             C3H3O2H           C2HCHO            CH3COCH2O         
                     PC3H4OH-2         SC3H4OH           SC3H5OH           CH3CHCHO          AC4H7OOH          
                     TQJC3H6OH         TQC3H6OI          QC3H5OHP          TQC3H5OHI         CCY(COC)OH        
                     IQJC3H6OH         IQC3H6OT          IQC3H5OHPJ        CHOCH2OOH         CY(CCOC)OH        
                     CHOCOHCH3         CY(COC)COH        TQC3H5OHIO2       TQC3H5OHIQ-I      TQC3H5OHIQ-P      
                     C2H3COHOOH        COHOOHCY(COC)     OHCY(COCC)OOH     IQC3H5OHPJO2      IQC3H5OTQ-I       
                     IQC3H5OHQ-SJ      CHOCOHCH2OOH      CHOCHO            TQC3H5OHTO2       OHCOCOOHCH3       
                     C2H3OO            CHCHO             C4H71-3OH         C4H71-1OH         C4H71-2OH         
                     PC4H8OH-2         SC4H8OH-1         C-2-C4H8          C4H6-1            C3H5OCH2-1        
                     NC5H12            C5H11-1           C5H11-2           C5H11-3           C5H10-1           
                     C5H10-2           C5H81-3           C5H91-3           C5H91-4           C5H91-5           
                     C5H92-4           C5H92-5           C5H9O1-3          C5H9O2-4          C5H11O2H-1        
                     C5H11O2H-2        C5H11O2H-3        C5H11O2-1         C5H11O2-2         C5H11O2-3         
                     C5H11O-1          C5H11O-2          C5H11O-3          C5H10OOH1-2       C5H10OOH1-3       
                     C5H10OOH1-4       C5H10OOH1-5       C5H10OOH2-1       C5H10OOH2-3       C5H10OOH2-4       
                     C5H10OOH2-5       C5H10OOH3-1       C5H10OOH3-2       C5H10O1-2         C5H10O1-3         
                     C5H10O1-4         C5H10O1-5         C5H10O2-3         C5H10O2-4         C5H10OOH1-2O2     
                     C5H10OOH1-3O2     C5H10OOH1-4O2     C5H10OOH1-5O2     C5H10OOH2-1O2     C5H10OOH2-3O2     
                     C5H10OOH2-4O2     C5H10OOH2-5O2     C5H10OOH3-1O2     C5H10OOH3-2O2     C5H91-2,3OOH      
                     C5H91-2,4OOH      C5H91-2,5OOH      C5H91-3,4OOH      C5H91-3,5OOH      C5H91-4,5OOH      
                     C5H92-1,3OOH      C5H92-1,4OOH      C5H92-1,5OOH      C5H92-3,4OOH      C5H92-3,5OOH      
                     C5H92-4,5OOH      C5H93-1,2OOH      C5H93-1,4OOH      C5H93-1,5OOH      C5H93-2,4OOH      
                     C5H91-3OOH        C5H91-4OOH        C5H91-5OOH        C5H92-1OOH        C5H92-4OOH        
                     C5H92-5OOH        C5H9O1-2OOH-3     C5H9O1-2OOH-4     C5H9O1-2OOH-5     C5H9O1-3OOH-2     
                     C5H9O1-3OOH-4     C5H9O1-3OOH-5     C5H9O1-4OOH-2     C5H9O1-4OOH-3     C5H9O1-4OOH-5     
                     C5H9O1-5OOH-2     C5H9O1-5OOH-3     C5H9O2-3OOH-1     C5H9O2-3OOH-4     C5H9O2-3OOH-5     
                     C5H9O2-4OOH-1     C5H9O2-4OOH-3     OCH2CHO           C5H9O1-2O-5       CH2OCH2CHO        
                     C2H4OCHO          CH2CH2OCH2CH2CHO  C4H7O1-4          NC5KET12          NC5KET13          
                     NC5KET14          NC5KET15          NC5KET21          NC5KET23          NC5KET24          
                     NC5KET25          NC5KET31          NC5KET32          CHOC4H8O          CHOCH2CH2C2H4O    
                     CHOCH2CH2CH2CH2O  C3H7COCH2O        CH3COC3H6O        CH3COCH2CH2CH2O   C2H5COC2H4O       
                     CH3COCH2C2H4O     CHOCH2C3H6O       C2H5COCH2CH2O     C5H10OH-1         C5H10OH-2         
                     O2C5H10OH-1       O2C5H10OH-2       IC5H12            AC5H11            BC5H11            
                     CC5H11            DC5H11            AC5H10            BC5H10            CC5H10            
                     AC5H9-A2          AC5H9-C           AC5H9-D           CC5H9-A           CC5H9-B           
                     AC5H9O-A2         AC5H9O-C          CC5H9O-B          AC5H11O2H         BC5H11O2H         
                     CC5H11O2H         DC5H11O2H         AC5H11O2          BC5H11O2          CC5H11O2          
                     DC5H11O2          AC5H11O           BC5H11O           CC5H11O           DC5H11O           
                     AC5H10OOH-A       AC5H10OOH-B       AC5H10OOH-C       AC5H10OOH-D       BC5H10OOH-A       
                     BC5H10OOH-C       BC5H10OOH-D       CC5H10OOH-A       CC5H10OOH-B       CC5H10OOH-D       
                     DC5H10OOH-A       DC5H10OOH-B       DC5H10OOH-C       A-AC5H10O         A-BC5H10O         
                     A-CC5H10O         A-DC5H10O         B-CC5H10O         B-DC5H10O         C-DC5H10O         
                     AC5H10OOH-AO2     AC5H10OOH-BO2     AC5H10OOH-CO2     AC5H10OOH-DO2     BC5H10OOH-AO2     
                     BC5H10OOH-CO2     BC5H10OOH-DO2     CC5H10OOH-AO2     CC5H10OOH-BO2     CC5H10OOH-DO2     
                     DC5H10OOH-AO2     DC5H10OOH-BO2     DC5H10OOH-CO2     C5H9A-A,BOOH      C5H9A-A,COOH      
                     C5H9A-A,DOOH      C5H9A-B,COOH      C5H9A-B,DOOH      C5H9A-C,DOOH      C5H9B-A,AOOH      
                     C5H9B-A,COOH      C5H9B-A,DOOH      C5H9B-C,DOOH      C5H9C-A,AOOH      C5H9C-A,BOOH      
                     C5H9C-A,DOOH      C5H9C-B,DOOH      C5H9D-A,AOOH      C5H9D-A,BOOH      C5H9D-A,COOH      
                     C5H9D-B,COOH      C5H9A-AOOH        C5H9A-COOH        C5H9A-DOOH        C5H9B-AOOH        
                     C5H9B-DOOH        C5H9C-AOOH        C5H9C-BOOH        C5H9OA-AOOH-B     C5H9OA-AOOH-C     
                     C5H9OA-AOOH-D     C5H9OA-BOOH-A     C5H9OA-BOOH-C     C5H9OA-BOOH-D     C5H9OA-COOH-A     
                     C5H9OA-COOH-B     C5H9OA-COOH-D     C5H9OA-DOOH-A     C5H9OA-DOOH-B     C5H9OA-DOOH-C     
                     C5H9OB-COOH-A     C5H9OB-COOH-D     C5H9OB-DOOH-A     C5H9OB-DOOH-C     C5H9OC-DOOH-A     
                     C5H9OC-DOOH-B     C4H7O2-1          AC3H5OCH2         CH3COCH2OCH2CH2   IC5KETAA          
                     IC5KETAB          IC5KETAC          IC5KETAD          IC5KETCA          IC5KETCB          
                     IC5KETCD          IC5KETDA          IC5KETDB          IC5KETDC          C2H5CH(CH2O)CHO   
                     C3H5O(CH3)CHO     C2H4OCH(CH3)CHO   CH2OC3H6CHO       CH3COCH(CH3)CH2O  CH3CO(CH3)C2H3O   
                     CH2OCOCH(CH3)CH3  CHOC3H6CH2O       CHOCH2(CH3)C2H3O  CHOCHOCH(CH3)CH3  AC5H10OH          
                     BC5H10OH          CC5H10OH          AO2C5H10OH        BO2C5H10OH        CO2C5H10OH        
                     IC3H5COCH3        IC3H5COCH2        AC3H4COCH3        NEOC5H12          NEOC5H11          
                     NEOC5H11O2H       NEOC5H11O2        NEOC5H11O         NEOC5H10OOH       NEO-C5H10O        
                     NEOC5H10OOH-O2    NEOC5H9Q2         NEOC5KET          NEOC5KETOX        NEOC5KEJOL        
                     NEOC5H9O-OOH      SC3H5OOH          C5H10OOH1-2O      C5H10OOH1-3O      C5H10OOH1-4O      
                     C5H10OOH1-5O      C5H10OOH2-1O      C5H10OOH2-3O      C5H10OOH2-4O      C5H10OOH2-5O      
                     C5H10OOH3-1O      C5H10OOH3-2O      NC6H14            C6H13-1           C6H13-2           
                     C6H13-3           C6H12-1           C6H12-2           C6H12-3           C6H111-3          
                     C6H111-4          C6H111-5          C6H111-6          C6H112-4          C6H112-5          
                     C6H112-6          C6H113-1          C6H12OH-1J2       C6H12OH-2J1       C6H12OH-2J3       
                     C6H12OH-3J2       C6H12OH-3J4       C6H12OH-1O2-2     C6H12OH-2O2-1     C6H12OH-2O2-3     
                     C6H12OH-3O2-2     C6H12OH-3O2-4     C6H11-1D3O        C6H11-1D4O        C6H11-1D5O        
                     C6H11-1D6O        C6H11-2D1O        C6H11-2D4O        C6H11-2D5O        C6H11-2D6O        
                     C6H11-3D1O        C6H11-3D2O        C6H13OOH-1        C6H13OOH-2        C6H13OOH-3        
                     C6H13O2-1         C6H13O2-2         C6H13O2-3         C6H13O-1          C6H13O-2          
                     C6H13O-3          C6H12OOH1-2       C6H12OOH1-3       C6H12OOH1-4       C6H12OOH1-5       
                     C6H12OOH2-1       C6H12OOH2-3       C6H12OOH2-4       C6H12OOH2-5       C6H12OOH2-6       
                     C6H12OOH3-1       C6H12OOH3-2       C6H12OOH3-4       C6H12OOH3-5       C6H12OOH3-6       
                     C6H12O1-2         C6H12O1-3         C6H12O1-4         C6H12O1-5         C6H12O2-3         
                     C6H12O2-4         C6H12O2-5         C6H12O3-4         C6H12OOH1-2O2     C6H12OOH1-3O2     
                     C6H12OOH1-4O2     C6H12OOH1-5O2     C6H12OOH2-1O2     C6H12OOH2-3O2     C6H12OOH2-4O2     
                     C6H12OOH2-5O2     C6H12OOH2-6O2     C6H12OOH3-1O2     C6H12OOH3-2O2     C6H12OOH3-4O2     
                     C6H12OOH3-5O2     C6H12OOH3-6O2     C6H11-1D3OOH      C6H11-1D4OOH      C6H11-1D5OOH      
                     C6H11-1D6OOH      C6H11-2D1OOH      C6H11-2D4OOH      C6H11-2D5OOH      C6H11-2D6OOH      
                     C6H11-3D1OOH      C6H11-3D2OOH      C6H11Q12-3        C6H11Q12-4        C6H11Q12-5        
                     C6H11Q12-6        C6H11Q13-2        C6H11Q13-4        C6H11Q13-5        C6H11Q13-6        
                     C6H11Q14-2        C6H11Q14-3        C6H11Q14-5        C6H11Q14-6        C6H11Q15-2        
                     C6H11Q15-3        C6H11Q15-4        C6H11Q15-6        C6H11Q23-1        C6H11Q23-4        
                     C6H11Q23-5        C6H11Q23-6        C6H11Q24-1        C6H11Q24-3        C6H11Q24-5        
                     C6H11Q24-6        C6H11Q25-1        C6H11Q25-3        C6H11Q34-1        C6H11Q34-2        
                     C6KET12           C6KET13           C6KET14           C6KET15           C6KET21           
                     C6KET23           C6KET24           C6KET25           C6KET26           C6KET31           
                     C6KET32           C6KET34           C6KET35           C6KET36           C5Y2              
                     C5Y2-1J           C5Y2-5J           C5Y3-1J           C5H91-1           C5AL-4D           
                     C5AL-2D           C6H11O12-3OOH     C6H11O12-4OOH     C6H11O12-5OOH     C6H11O12-6OOH     
                     C6H11O13-2OOH     C6H11O13-4OOH     C6H11O13-5OOH     C6H11O13-6OOH     C6H11O14-2OOH     
                     C6H11O14-3OOH     C6H11O14-5OOH     C6H11O14-6OOH     C6H11O15-2OOH     C6H11O15-3OOH     
                     C6H11O15-4OOH     C6H11O15-6OOH     C6H11O23-1OOH     C6H11O23-4OOH     C6H11O23-5OOH     
                     C6H11O23-6OOH     C6H11O24-1OOH     C6H11O24-3OOH     C6H11O24-5OOH     C6H11O24-6OOH     
                     C6H11O25-1OOH     C6H11O25-3OOH     C6H11O34-1OOH     C6H11O34-2OOH     PC4H9CHO          
                     PC4H8CHO-1        PC4H8CHO-2        PC4H8CHO-3        PC4H8CHO-4        C4H7O12-4         
                     C4H7O13-4         C4H7O23-1         C5H9O12-5         C5H9O13-5         C5H9O14-5         
                     C5H9O23-1         C5H9O23-5         C5H9O24-1         C3H6CHO-3O        AC3H5CHO          
                     PC4H9CO           C6KET12O          C6KET13O          C6KET14O          C6KET15O          
                     C6KET21O          C6KET23O          C6KET24O          C6KET25O          C6KET26O          
                     C6KET31O          C6KET32O          C6KET34O          C6KET35O          C6KET36O          
                     C6H10D13          C6H10D24          C6H12OOH1-2O      C6H12OOH1-3O      C6H12OOH1-4O      
                     C6H12OOH1-5O      C6H12OOH2-1O      C6H12OOH2-3O      C6H12OOH2-4O      C6H12OOH2-5O      
                     C6H12OOH2-6O      C6H12OOH3-1O      C6H12OOH3-2O      C6H12OOH3-4O      C6H12OOH3-5O      
                     C6H12OOH3-6O      CH3COOH           C2H5COOH          I3C6              I3C6-1            
                     I3C6-2            I3C6-3            I3C6-4            I3C6D1            I3C6D2            
                     I3C6D3            I3C6D1-3          I3C6D1-4          I3C6D1-5          I3C6D1-6          
                     I3C6D2-5          I3C6D2-6          I3C6D3-1          I3C6D3-2          I3C6OH1-2J        
                     I3C6OH2-1J        I3C6OH2-3J        I3C6OH3-2J        I3C6OH3-4J        I3C6OH4-3J        
                     I3C6OH1-2O2       I3C6OH2-1O2       I3C6OH2-3O2       I3C6OH3-2O2       I3C6OH3-4O2       
                     I3C6OH4-3O2       I3C6D1-3O         I3C6D1-4O         I3C6D1-5O         I3C6D1-6O         
                     I3C6D2-5O         I3C6D2-6O         I3C6D3-1O         I3C6D3-2O         I3C6-1OOH         
                     I3C6-1O2          I3C6-2OOH         I3C6-2O2          I3C6-3OOH         I3C6-3O2          
                     I3C6-4OOH         I3C6-4O2          I3C6-1O           I3C6-2O           I3C6-3O           
                     I3C6-4O           I3C6OOH1-2        I3C6OOH1-3        I3C6OOH1-4        I3C6OOH1-5        
                     I3C6OOH1-6        I3C6OOH2-1        I3C6OOH2-3        I3C6OOH2-4        I3C6OOH2-5        
                     I3C6OOH2-6        I3C6OOH3-1        I3C6OOH3-2        I3C6OOH3-4        I3C6OOH4-1        
                     I3C6OOH4-2        I3C6OOH4-3        I3C6O1-2          I3C6O1-3          I3C6O1-4          
                     I3C6O1-5          I3C6O1-6          I3C6O2-3          I3C6O2-4          I3C6O2-5          
                     I3C6O3-4          I3C6OOH1-2O2      I3C6OOH1-3O2      I3C6OOH1-4O2      I3C6OOH1-5O2      
                     I3C6OOH1-6O2      I3C6OOH2-1O2      I3C6OOH2-3O2      I3C6OOH2-4O2      I3C6OOH2-5O2      
                     I3C6OOH2-6O2      I3C6OOH3-1O2      I3C6OOH3-2O2      I3C6OOH3-4O2      I3C6OOH4-1O2      
                     I3C6OOH4-2O2      I3C6OOH4-3O2      I3C6KET1-2        I3C6KET1-3        I3C6KET1-4        
                     I3C6KET1-5        I3C6KET1-6        I3C6KET2-1        I3C6KET2-3        I3C6KET2-4        
                     I3C6KET2-5        I3C6KET2-6        I3C6KET4-1        I3C6KET4-2        I3C6KET4-3        
                     I3C6D1-3OOH       I3C6D1-4OOH       I3C6D1-5OOH       I3C6D1-6OOH       I3C6D2-1OOH       
                     I3C6D2-4OOH       I3C6D2-5OOH       I3C6D2-6OOH       I3C6D3-1OOH       I3C6D3-2OOH       
                     I3C6Q12-3         I3C6Q12-4         I3C6Q12-5         I3C6Q12-6         I3C6Q13-2         
                     I3C6Q13-4         I3C6Q13-5         I3C6Q13-6         I3C6Q14-2         I3C6Q14-3         
                     I3C6Q14-5         I3C6Q14-6         I3C6Q15-2         I3C6Q15-3         I3C6Q15-4         
                     I3C6Q15-6         I3C6Q16-2         I3C6Q16-3         I3C6Q16-4         I3C6Q23-1         
                     I3C6Q23-4         I3C6Q23-5         I3C6Q23-6         I3C6Q24-1         I3C6Q24-3         
                     I3C6Q24-5         I3C6Q24-6         I3C6Q25-1         I3C6Q25-3         I3C6Q25-4         
                     I3C6Q34-1         I3C6Q34-2         I3C6O12-3OOH      I3C6O12-4OOH      I3C6O12-5OOH      
                     I3C6O12-6OOH      I3C6O13-2OOH      I3C6O13-4OOH      I3C6O13-5OOH      I3C6O13-6OOH      
                     I3C6O14-2OOH      I3C6O14-3OOH      I3C6O14-5OOH      I3C6O14-6OOH      I3C6O15-2OOH      
                     I3C6O15-3OOH      I3C6O15-4OOH      I3C6O15-6OOH      I3C6O16-2OOH      I3C6O16-3OOH      
                     I3C6O16-4OOH      I3C6O23-1OOH      I3C6O23-4OOH      I3C6O23-5OOH      I3C6O23-6OOH      
                     I3C6O24-1OOH      I3C6O24-3OOH      I3C6O24-5OOH      I3C6O24-6OOH      I3C6O25-1OOH      
                     I3C6O25-3OOH      I3C6O25-4OOH      I3C6O34-1OOH      I3C6O34-2OOH      IC4H8CHO-I        
                     IC5Y3-1J          C5H9O2-1          IC5O34-1J         C5Y2-3J           C5H9O15-3         
                     AC5H9O-D          IC5D1Y3           SC4H9CHO          SC4H9CO           SC4H8CHO-1        
                     SC4H8CHO-2        SC4H8CHO-3        SC4H8CHO-4        C5Y3              C5Y3-2J           
                     I3C6KET1-2O       I3C6KET1-3O       I3C6KET1-4O       I3C6KET1-5O       I3C6KET1-6O       
                     I3C6KET2-1O       I3C6KET2-3O       I3C6KET2-4O       I3C6KET2-5O       I3C6KET2-6O       
                     I3C6KET4-1O       I3C6KET4-2O       I3C6KET4-3O""",
          reactions='all',
          initial_state=state(temperature=300.0, pressure=OneAtm))

#-------------------------------------------------------------------------------
# Species data
#-------------------------------------------------------------------------------

species(name='H',
        atoms='H:1',
        thermo=(NASA([200.00, 1000.00],
                     [ 2.50000000E+00,  0.00000000E+00,  0.00000000E+00,
                       0.00000000E+00,  0.00000000E+00,  2.54736600E+04,
                      -4.46682850E-01]),
                NASA([1000.00, 6000.00],
                     [ 2.50000000E+00,  0.00000000E+00,  0.00000000E+00,
                       0.00000000E+00,  0.00000000E+00,  2.54736600E+04,
                      -4.46682850E-01])),
        note='L6/94')

species(name='H2',
        atoms='H:2',
        thermo=(NASA([200.00, 1000.00],
                     [ 2.34433112E+00,  7.98052075E-03, -1.94781510E-05,
                       2.01572094E-08, -7.37611761E-12, -9.17935173E+02,
                       6.83010238E-01]),
                NASA([1000.00, 6000.00],
                     [ 2.93286575E+00,  8.26608026E-04, -1.46402364E-07,
                       1.54100414E-11, -6.88804800E-16, -8.13065581E+02,
                      -1.02432865E+00])),
        note='TPIS78')

species(name='O',
        atoms='O:1',
        thermo=(NASA([200.00, 1000.00],
                     [ 3.16826710E+00, -3.27931884E-03,  6.64306396E-06,
                      -6.12806624E-09,  2.11265971E-12,  2.91222592E+04,
                       2.05193346E+00]),
                NASA([1000.00, 6000.00],
                     [ 2.54363697E+00, -2.73162486E-05, -4.19029520E-09,
                       4.95481845E-12, -4.79553694E-16,  2.92260120E+04,
                       4.92229457E+00])),
        note='L1/90')

species(name='O2',
        atoms='O:2',
        thermo=(NASA([200.00, 1000.00],
                     [ 3.78245636E+00, -2.99673416E-03,  9.84730201E-06,
                      -9.68129509E-09,  3.24372837E-12, -1.06394356E+03,
                       3.65767573E+00]),
                NASA([1000.00, 6000.00],
                     [ 3.66096065E+00,  6.56365811E-04, -1.41149627E-07,
                       2.05797935E-11, -1.29913436E-15, -1.21597718E+03,
                       3.41536279E+00])),
        note='RUS89')

species(name='OH',
        atoms='O:1 H:1',
        thermo=(NASA([200.00, 1000.00],
                     [ 3.99198424E+00, -2.40106655E-03,  4.61664033E-06,
                      -3.87916306E-09,  1.36319502E-12,  3.36889836E+03,
                      -1.03998477E-01]),
                NASA([1000.00, 6000.00],
                     [ 2.83853033E+00,  1.10741289E-03, -2.94000209E-07,
                       4.20698729E-11, -2.42289890E-15,  3.69780808E+03,
                       5.84494652E+00])),
        note='IU3/03')

species(name='OH*',
        atoms='O:1 H:1',
        thermo=(NASA([300.00, 1000.00],
                     [ 3.63726600E+00,  1.85091000E-04, -1.67616460E-06,
                       2.38720200E-09, -8.43144200E-13,  5.00213000E+04,
                       1.35886050E+00]),
                NASA([1000.00, 5000.00],
                     [ 2.88273000E+00,  1.01397430E-03, -2.27687700E-07,
                       2.17468300E-11, -5.12630500E-16,  5.02650000E+04,
                       5.59571200E+00])),
        note='121286')

species(name='H2O',
        atoms='H:2 O:1',
        thermo=(NASA([200.00, 1000.00],
                     [ 4.19863520E+00, -2.03640170E-03,  6.52034160E-06,
                      -5.48792690E-09,  1.77196800E-12, -3.02937260E+04,
                      -8.49009010E-01]),
                NASA([1000.00, 6000.00],
                     [ 2.67703890E+00,  2.97318160E-03, -7.73768890E-07,
                       9.44335140E-11, -4.26899910E-15, -2.98858940E+04,
                       6.88255000E+00])),
        note='L5/89')

species(name='N2',
        atoms='N:2',
        thermo=(NASA([200.00, 1000.00],
                     [ 3.53100528E+00, -1.23660988E-04, -5.02999433E-07,
                       2.43530612E-09, -1.40881235E-12, -1.04697628E+03,
                       2.96747038E+00]),
                NASA([1000.00, 6000.00],
                     [ 2.95257637E+00,  1.39690040E-03, -4.92631603E-07,
                       7.86010195E-11, -4.60755204E-15, -9.23948688E+02,
                       5.87188762E+00])),
        note='G8/02')

species(name='HO2',
        atoms='H:1 O:2',
        thermo=(NASA([200.00, 1000.00],
                     [ 4.30179807E+00, -4.74912097E-03,  2.11582905E-05,
                      -2.42763914E-08,  9.29225225E-12,  2.64018485E+02,
                       3.71666220E+00]),
                NASA([1000.00, 5000.00],